
**** 02/05/21 02:25:49 ********* PSpice 9.2 (Mar 2000) ******** ID# 1 ********

 ** Profile: "SCHEMATIC1-soal4"  [ C:\USERS\ARIAN 3\DESKTOP\PROJE1\4\soal4-SCHEMATIC1-soal4.sim ] 


 ****     CIRCUIT DESCRIPTION


******************************************************************************




** Creating circuit file "soal4-SCHEMATIC1-soal4.sim.cir" 
** WARNING: THIS AUTOMATICALLY GENERATED FILE MAY BE OVERWRITTEN BY SUBSEQUENT SIMULATIONS

*Libraries: 
* Local Libraries :
* From [PSPICE NETLIST] section of C:\Program Files\Orcad\PSpice\PSpice.ini file:
.lib "nom.lib" 

*Analysis directives: 
.DC DEC PARAM Rvar 1 10k 20 
+ DEC PARAM Rvar1 1 10k 20 
.PROBE V(*) I(*) W(*) D(*) NOISE(*) 
.INC ".\soal4-SCHEMATIC1.net" 



**** INCLUDING soal4-SCHEMATIC1.net ****
* source SOAL4
R_R1         VIN N00283  {Rvar}  
R_R2         0 VOUT  {Rvar1}  
C_C1         0 N00348  2u  
L_L1         N00283 VOUT  50mH  
V_V2         VIN 0 DC 8Vdc AC 8Vac 
X_F1    N00283 N00348 0 VOUT SCHEMATIC1_F1 
.PARAM  Rvar=1k Rvar1=1k

.subckt SCHEMATIC1_F1 1 2 3 4  
F_F1         3 4 VF_F1 0.5
VF_F1         1 2 0V
.ends SCHEMATIC1_F1

**** RESUMING soal4-SCHEMATIC1-soal4.sim.cir ****
.END


          JOB CONCLUDED

          TOTAL JOB TIME             .27
