
**** 02/05/21 01:15:32 ********* PSpice 9.2 (Mar 2000) ******** ID# 1 ********

 ** Profile: "SCHEMATIC1-soal2"  [ C:\USERS\ARIAN 3\DESKTOP\PROJE1\2\soal2-SCHEMATIC1-soal2.sim ] 


 ****     CIRCUIT DESCRIPTION


******************************************************************************




** Creating circuit file "soal2-SCHEMATIC1-soal2.sim.cir" 
** WARNING: THIS AUTOMATICALLY GENERATED FILE MAY BE OVERWRITTEN BY SUBSEQUENT SIMULATIONS

*Libraries: 
* Local Libraries :
* From [PSPICE NETLIST] section of C:\Program Files\Orcad\PSpice\PSpice.ini file:
.lib "nom.lib" 

*Analysis directives: 
.AC DEC 2000 1 100000k
.PROBE V(*) I(*) W(*) D(*) NOISE(*) 
.INC ".\soal2-SCHEMATIC1.net" 



**** INCLUDING soal2-SCHEMATIC1.net ****
* source SOAL2
R_R1         VIN N00283  4k  
R_R2         0 VOUT  2k  
C_C1         0 N00348  2u  
L_L1         N00283 VOUT  50mH  
V_V2         VIN 0 DC 0Vdc AC 8Vac 
X_F1    N00283 N00348 0 VOUT SCHEMATIC1_F1 

.subckt SCHEMATIC1_F1 1 2 3 4  
F_F1         3 4 VF_F1 0.5
VF_F1         1 2 0V
.ends SCHEMATIC1_F1

**** RESUMING soal2-SCHEMATIC1-soal2.sim.cir ****
.END

**** 02/05/21 01:15:32 ********* PSpice 9.2 (Mar 2000) ******** ID# 1 ********

 ** Profile: "SCHEMATIC1-soal2"  [ C:\USERS\ARIAN 3\DESKTOP\PROJE1\2\soal2-SCHEMATIC1-soal2.sim ] 


 ****     SMALL SIGNAL BIAS SOLUTION       TEMPERATURE =   27.000 DEG C


******************************************************************************



 NODE   VOLTAGE     NODE   VOLTAGE     NODE   VOLTAGE     NODE   VOLTAGE


(  VIN)    0.0000  ( VOUT)    0.0000  (N00283)    0.0000 (N00348)    0.0000 




    VOLTAGE SOURCE CURRENTS
    NAME         CURRENT

    V_V2         0.000E+00
    X_F1.VF_F1   0.000E+00

    TOTAL POWER DISSIPATION   0.00E+00  WATTS



          JOB CONCLUDED

          TOTAL JOB TIME             .39
